*Heading
** Job name: final_v3 Model name: Lithium_Model
** Generated by: Abaqus/CAE 2017
*Preprint, echo=NO, model=NO, history=NO, contact=NO
**
** PARTS
**
*Part, name=LITHIUM_SE
*End Part
**  
**
** ASSEMBLY
**
*Assembly, name=Assembly
**  
*Instance, name=LITHIUM_INST, part=LITHIUM_SE
*Node
      1,          12.,          5.5
      2,          12.,           5.
      3,          20.,           5.
      4,          20.,          5.5
      5,           8.,           5.
      6,           8.,          5.5
      7,           0.,          5.5
      8,           0.,           5.
      9,          20.,         10.5
     10,           0.,         10.5
     11,           0.,           0.
     12,          20.,           0.
     13,          12.,    5.4000001
     14,          12.,   5.30000019
     15,          12.,   5.19999981
     16,          12.,    5.0999999
     17,   12.1999998,           5.
     18,   12.3999996,           5.
     19,   12.6000004,           5.
     20,   12.8000002,           5.
** ... 3126 like lines cut
*Element, type=CPE4H
  1,   1,  13, 537,  98
  2,  13,  14, 538, 537
  3,  14,  15, 539, 538
  4,  15,  16, 540, 539
  5,  16,   2,  17, 540
  6,  98, 537, 541,  97
  7, 537, 538, 542, 541
  8, 538, 539, 543, 542
  9, 539, 540, 544, 543
 10, 540,  17,  18, 544
 11,  97, 541, 545,  96
 12, 541, 542, 546, 545
 13, 542, 543, 547, 546
 14, 543, 544, 548, 547
 15, 544,  18,  19, 548
 16,  96, 545, 549,  95
 17, 545, 546, 550, 549
 18, 546, 547, 551, 550
 19, 547, 548, 552, 551
 20, 548,  19,  20, 552
** ... 2980 like lines cut
*Nset, nset=_PickedSet4, internal
    2,    3,    5,    8,   11,   12,   17,   18,   19,   20,   21,   22,   23,   24,   25,   26
   27,   28,   29,   30,   31,   32,   33,   34,   35,   36,   37,   38,   39,   40,   41,   42
   43,   44,   45,   46,   47,   48,   49,   50,   51,   52,   53,   54,   55,  146,  147,  148
  149,  150,  151,  152,  153,  154,  155,  156,  157,  158,  159,  160,  161,  162,  163,  164
  165,  166,  167,  168,  169,  170,  171,  172,  173,  174,  175,  176,  177,  178,  179,  180
  181,  182,  183,  184,  361,  362,  363,  364,  365,  366,  367,  368,  369,  370,  371,  372
  373,  374,  375,  376,  377,  378,  379,  380,  381,  382,  383,  384,  385,  386,  387,  388
  389,  390,  391,  392,  393,  394,  395,  396,  397,  398,  399,  400,  401,  402,  403,  404
  405,  406,  407,  408,  409,  410,  411,  412,  413,  414,  415,  416,  417,  418,  419,  420
  421,  422,  423,  424,  425,  426,  427,  428,  429,  430,  431,  432,  433,  434,  435,  436
  437,  438,  439,  440,  441,  442,  443,  444,  445,  446,  447,  448,  449,  450,  451,  452
  453,  454,  455,  456,  457,  458,  459,  460,  461,  462,  463,  464,  465,  466,  467,  468
  469,  470,  471,  472,  473,  474,  475,  476,  477,  478,  479,  480,  481,  482,  483,  484
  485,  486,  487,  488,  489,  490,  491,  492,  493,  494,  495,  496,  497,  498,  499,  500
  501,  502,  503,  504,  505,  506,  507,  508,  509,  510,  511,  512,  513,  514,  515,  516
  517,  518,  519,  520,  521,  522,  523,  524,  525,  526,  527,  528,  529,  530,  531,  532
  533,  534,  535,  536, 2076, 2077, 2078, 2079, 2080, 2081, 2082, 2083, 2084, 2085, 2086, 2087
 2088, 2089, 2090, 2091, 2092, 2093, 2094, 2095, 2096, 2097, 2098, 2099, 2100, 2101, 2102, 2103
 2104, 2105, 2106, 2107, 2108, 2109, 2110, 2111, 2112, 2113, 2114, 2115, 2116, 2117, 2118, 2119
 2120, 2121, 2122, 2123, 2124, 2125, 2126, 2127, 2128, 2129, 2130, 2131, 2132, 2133, 2134, 2135
** ... 64 like lines cut
*Elset, elset=_PickedSet4, internal, generate
 1801,  3000,     1
*Nset, nset=_PickedSet5, internal
    1,    2,    3,    4,    5,    6,    7,    8,   13,   14,   15,   16,   17,   18,   19,   20
   21,   22,   23,   24,   25,   26,   27,   28,   29,   30,   31,   32,   33,   34,   35,   36
   37,   38,   39,   40,   41,   42,   43,   44,   45,   46,   47,   48,   49,   50,   51,   52
   53,   54,   55,   56,   57,   58,   59,   60,   61,   62,   63,   64,   65,   66,   67,   68
   69,   70,   71,   72,   73,   74,   75,   76,   77,   78,   79,   80,   81,   82,   83,   84
   85,   86,   87,   88,   89,   90,   91,   92,   93,   94,   95,   96,   97,   98,   99,  100
  101,  102,  103,  104,  105,  106,  107,  108,  109,  110,  111,  112,  113,  114,  115,  116
  117,  118,  119,  120,  121,  122,  123,  124,  125,  126,  127,  128,  129,  130,  131,  132
  133,  134,  135,  136,  137,  138,  139,  140,  141,  142,  143,  144,  145,  146,  147,  148
  149,  150,  151,  152,  153,  154,  155,  156,  157,  158,  159,  160,  161,  162,  163,  164
  165,  166,  167,  168,  169,  170,  171,  172,  173,  174,  175,  176,  177,  178,  179,  180
  181,  182,  183,  184,  322,  323,  324,  325,  326,  327,  328,  329,  330,  331,  332,  333
  334,  335,  336,  337,  338,  339,  340,  341,  342,  343,  344,  345,  346,  347,  348,  349
  350,  351,  352,  353,  354,  355,  356,  357,  358,  359,  360,  361,  362,  363,  364,  365
  366,  367,  368,  369,  370,  371,  372,  373,  374,  375,  376,  377,  378,  379,  380,  381
  382,  383,  384,  385,  386,  387,  388,  389,  390,  391,  392,  393,  394,  395,  396,  397
  398,  399,  537,  538,  539,  540,  541,  542,  543,  544,  545,  546,  547,  548,  549,  550
  551,  552,  553,  554,  555,  556,  557,  558,  559,  560,  561,  562,  563,  564,  565,  566
  567,  568,  569,  570,  571,  572,  573,  574,  575,  576,  577,  578,  579,  580,  581,  582
  583,  584,  585,  586,  587,  588,  589,  590,  591,  592,  593,  594,  595,  596,  597,  598
** ... 26 like lines cut
*Elset, elset=_PickedSet5, internal
    1,    2,    3,    4,    5,    6,    7,    8,    9,   10,   11,   12,   13,   14,   15,   16
   17,   18,   19,   20,   21,   22,   23,   24,   25,   26,   27,   28,   29,   30,   31,   32
   33,   34,   35,   36,   37,   38,   39,   40,   41,   42,   43,   44,   45,   46,   47,   48
   49,   50,   51,   52,   53,   54,   55,   56,   57,   58,   59,   60,   61,   62,   63,   64
   65,   66,   67,   68,   69,   70,   71,   72,   73,   74,   75,   76,   77,   78,   79,   80
   81,   82,   83,   84,   85,   86,   87,   88,   89,   90,   91,   92,   93,   94,   95,   96
   97,   98,   99,  100,  101,  102,  103,  104,  105,  106,  107,  108,  109,  110,  111,  112
  113,  114,  115,  116,  117,  118,  119,  120,  121,  122,  123,  124,  125,  126,  127,  128
  129,  130,  131,  132,  133,  134,  135,  136,  137,  138,  139,  140,  141,  142,  143,  144
  145,  146,  147,  148,  149,  150,  151,  152,  153,  154,  155,  156,  157,  158,  159,  160
  161,  162,  163,  164,  165,  166,  167,  168,  169,  170,  171,  172,  173,  174,  175,  176
  177,  178,  179,  180,  181,  182,  183,  184,  185,  186,  187,  188,  189,  190,  191,  192
  193,  194,  195,  196,  197,  198,  199,  200,  201,  202,  203,  204,  205,  206,  207,  208
  209,  210,  211,  212,  213,  214,  215,  216,  217,  218,  219,  220,  221,  222,  223,  224
  225,  226,  227,  228,  229,  230,  231,  232,  233,  234,  235,  236,  237,  238,  239,  240
  241,  242,  243,  244,  245,  246,  247,  248,  249,  250,  251,  252,  253,  254,  255,  256
  257,  258,  259,  260,  261,  262,  263,  264,  265,  266,  267,  268,  269,  270,  271,  272
  273,  274,  275,  276,  277,  278,  279,  280,  281,  282,  283,  284,  285,  286,  287,  288
  289,  290,  291,  292,  293,  294,  295,  296,  297,  298,  299,  300,  301,  302,  303,  304
  305,  306,  307,  308,  309,  310,  311,  312,  313,  314,  315,  316,  317,  318,  319,  320
** ... 18 like lines cut
*Nset, nset=_PickedSet6, internal
    1,    4,    6,    7,    9,   10,   60,   61,   62,   63,   64,   65,   66,   67,   68,   69
   70,   71,   72,   73,   74,   75,   76,   77,   78,   79,   80,   81,   82,   83,   84,   85
   86,   87,   88,   89,   90,   91,   92,   93,   94,   95,   96,   97,   98,  103,  104,  105
  106,  107,  108,  109,  110,  111,  112,  113,  114,  115,  116,  117,  118,  119,  120,  121
  122,  123,  124,  125,  126,  127,  128,  129,  130,  131,  132,  133,  134,  135,  136,  137
  138,  139,  140,  141,  185,  186,  187,  188,  189,  190,  191,  192,  193,  194,  195,  196
  197,  198,  199,  200,  201,  202,  203,  204,  205,  206,  207,  208,  209,  210,  211,  212
  213,  214,  215,  216,  217,  218,  219,  220,  221,  222,  223,  224,  225,  226,  227,  228
  229,  230,  231,  232,  233,  234,  235,  236,  237,  238,  239,  240,  241,  242,  243,  244
  245,  246,  247,  248,  249,  250,  251,  252,  253,  254,  255,  256,  257,  258,  259,  260
  261,  262,  263,  264,  265,  266,  267,  268,  269,  270,  271,  272,  273,  274,  275,  276
  277,  278,  279,  280,  281,  282,  283,  284,  285,  286,  287,  288,  289,  290,  291,  292
  293,  294,  295,  296,  297,  298,  299,  300,  301,  302,  303,  304,  305,  306,  307,  308
  309,  310,  311,  312,  313,  314,  315,  316,  317,  318,  319,  320,  321,  322,  323,  324
  325,  326,  327,  328,  329,  330,  331,  332,  333,  334,  335,  336,  337,  338,  339,  340
  341,  342,  343,  344,  345,  346,  347,  348,  349,  350,  351,  352,  353,  354,  355,  356
  357,  358,  359,  360,  849,  850,  851,  852,  853,  854,  855,  856,  857,  858,  859,  860
  861,  862,  863,  864,  865,  866,  867,  868,  869,  870,  871,  872,  873,  874,  875,  876
  877,  878,  879,  880,  881,  882,  883,  884,  885,  886,  887,  888,  889,  890,  891,  892
  893,  894,  895,  896,  897,  898,  899,  900,  901,  902,  903,  904,  905,  906,  907,  908
** ... 64 like lines cut
*Elset, elset=_PickedSet6, internal, generate
  401,  1600,     1
** Section: SEC_SEED
*Solid Section, elset=_PickedSet5, material=LITHIUM_IP
,
** Section: SEC_LITHIUM
*Solid Section, elset=_PickedSet6, material=LITHIUM_SUB
,
** Section: SEC_LLZO
*Solid Section, elset=_PickedSet4, material=LLZO
,
*End Instance
**  
*Nset, nset=BOTTOM, instance=LITHIUM_INST
  11,  12, 409, 410, 411, 412, 413, 414, 415, 416, 417, 418, 419, 420, 421, 422
 423, 424, 425, 426, 427, 428, 429, 430, 431, 432, 433, 434, 435, 436, 437, 438
 439, 440, 441, 442, 443, 444, 445, 446, 447, 448, 449, 450, 451, 452, 453, 454
 455, 456, 457, 458, 459, 460, 461, 462, 463, 464, 465, 466, 467, 468, 469, 470
 471, 472, 473, 474, 475, 476, 477, 478, 479, 480, 481, 482, 483, 484, 485, 486
 487, 488, 489, 490, 491, 492, 493, 494, 495, 496, 497, 498, 499, 500, 501, 502
 503, 504, 505, 506, 507, 508, 509, 510, 511, 512, 513, 514, 515, 516, 517, 518
 519, 520, 521, 522, 523, 524, 525, 526, 527
*Elset, elset=BOTTOM, instance=LITHIUM_INST, generate
 2881,  3000,     1
*Nset, nset=LEFT, instance=LITHIUM_INST
   7,   8,  10,  11, 142, 143, 144, 145, 313, 314, 315, 316, 317, 318, 319, 320
 321, 400, 401, 402, 403, 404, 405, 406, 407, 408
*Elset, elset=LEFT, instance=LITHIUM_INST
  396,  397,  398,  399,  400, 1591, 1592, 1593, 1594, 1595, 1596, 1597, 1598, 1599, 1600, 1920
 2040, 2160, 2280, 2400, 2520, 2640, 2760, 2880, 3000
*Nset, nset=RIGHT, instance=LITHIUM_INST
   3,   4,   9,  12,  56,  57,  58,  59, 185, 186, 187, 188, 189, 190, 191, 192
 193, 528, 529, 530, 531, 532, 533, 534, 535, 536
*Elset, elset=RIGHT, instance=LITHIUM_INST
  196,  197,  198,  199,  200,  401,  402,  403,  404,  405,  406,  407,  408,  409,  410, 1801
 1921, 2041, 2161, 2281, 2401, 2521, 2641, 2761, 2881
*Nset, nset=TOP_NODES, instance=LITHIUM_INST
   9,  10, 194, 195, 196, 197, 198, 199, 200, 201, 202, 203, 204, 205, 206, 207
 208, 209, 210, 211, 212, 213, 214, 215, 216, 217, 218, 219, 220, 221, 222, 223
 224, 225, 226, 227, 228, 229, 230, 231, 232, 233, 234, 235, 236, 237, 238, 239
 240, 241, 242, 243, 244, 245, 246, 247, 248, 249, 250, 251, 252, 253, 254, 255
 256, 257, 258, 259, 260, 261, 262, 263, 264, 265, 266, 267, 268, 269, 270, 271
 272, 273, 274, 275, 276, 277, 278, 279, 280, 281, 282, 283, 284, 285, 286, 287
 288, 289, 290, 291, 292, 293, 294, 295, 296, 297, 298, 299, 300, 301, 302, 303
 304, 305, 306, 307, 308, 309, 310, 311, 312
*Elset, elset=TOP_NODES, instance=LITHIUM_INST, generate
  410,  1600,    10
*Elset, elset=_TOP_SURFACE_S2, internal, instance=LITHIUM_INST, generate
  410,  1600,    10
*Surface, type=ELEMENT, name=TOP_SURFACE
_TOP_SURFACE_S2, S2
*End Assembly
** 
** MATERIALS
** 
*Material, name=LITHIUM_IP
*Depvar
     24,
*User Material, constants=16
7810.,    0.38, 4.254e4,     37.,    298.,   0.15,   0.95,     10.
     2.,      2.,    0.05, 1.3e-05,      0.,      1.,      0., 103.643
*Material, name=LITHIUM_SUB
*Depvar
     24,
*User Material, constants=16
7810.,    0.38, 4.254e4,     37.,    298.,   0.15,   0.95,     10.
     2.,      2.,    0.05, 1.3e-05,      0.,      1.,      0.,      0.
*Material, name=LLZO
*Elastic
150000., 0.25
** 
** BOUNDARY CONDITIONS
** 
** Name: BC_BOT Type: Displacement/Rotation
*Boundary
BOTTOM, 1, 1
BOTTOM, 2, 2
** Name: BC_LEFT Type: Displacement/Rotation
*Boundary
LEFT, 1, 1
** Name: BC_RIGHT Type: Displacement/Rotation
*Boundary
RIGHT, 1, 1
** ----------------------------------------------------------------
** 
** STEP: Step-1
** 
*Step, name=Step-1, nlgeom=YES, inc=100000
*Static, stabilize, factor=0.002, allsdtol=0, continue=NO
0.001, 21600., 1e-07, 1.
** 
** LOADS
** 
** Name: Load-1   Type: Pressure
*Dsload
TOP_SURFACE, P, 0.1
** 
** OUTPUT REQUESTS
** 
*Restart, write, frequency=0
** 
** FIELD OUTPUT: F-Output-1
** 
*Output, field
*Node Output
NT, RF, U
*Element Output, directions=YES
LE, S, SDV, STATUS
** 
** HISTORY OUTPUT: H-Output-1
** 
*Output, history, variable=PRESELECT
*End Step
