*Heading
 Modified Lithium/LLZO model with quadratic CPE8H elements and contact friction 0.1, pressure 5.0
** Job name: final_v2_p5 Model name: Lithium_Model_p5
** Generated by: Abaqus/CAE 2017
*Preprint, echo=NO, model=NO, history=NO, contact=NO
**
** PARTS
**
*Part, name=LITHIUM_PART
*Node
      1,           0.,          5.5
      2,          20.,          5.5
      3,          20.,         10.5
      4,           0.,         10.5
      5,           0.,           5.
      6,          20.,           5.
      7,  0.200000003,          5.5
      8,  0.400000006,          5.5
      9,  0.600000024,          5.5
     10,  0.800000012,          5.5
     11,           1.,          5.5
     12,   1.20000005,          5.5
     13,   1.39999998,          5.5
     14,   1.60000002,          5.5
     15,   1.79999995,          5.5
     16,           2.,          5.5
     17,   2.20000005,          5.5
     18,    2.4000001,          5.5
     19,    2.5999999,          5.5
     20,   2.79999995,          5.5
** ... 10751 like lines cut
*Element, type=CPE8
   1,    1,    7,  370,  252, 3637, 3638, 3639, 3640
   2,    7,    8,  371,  370, 3641, 3642, 3643, 3638
   3,    8,    9,  372,  371, 3644, 3645, 3646, 3642
   4,    9,   10,  373,  372, 3647, 3648, 3649, 3645
   5,   10,   11,  374,  373, 3650, 3651, 3652, 3648
   6,   11,   12,  375,  374, 3653, 3654, 3655, 3651
   7,   12,   13,  376,  375, 3656, 3657, 3658, 3654
   8,   13,   14,  377,  376, 3659, 3660, 3661, 3657
   9,   14,   15,  378,  377, 3662, 3663, 3664, 3660
  10,   15,   16,  379,  378, 3665, 3666, 3667, 3663
  11,   16,   17,  380,  379, 3668, 3669, 3670, 3666
  12,   17,   18,  381,  380, 3671, 3672, 3673, 3669
  13,   18,   19,  382,  381, 3674, 3675, 3676, 3672
  14,   19,   20,  383,  382, 3677, 3678, 3679, 3675
  15,   20,   21,  384,  383, 3680, 3681, 3682, 3678
  16,   21,   22,  385,  384, 3683, 3684, 3685, 3681
  17,   22,   23,  386,  385, 3686, 3687, 3688, 3684
  18,   23,   24,  387,  386, 3689, 3690, 3691, 3687
  19,   24,   25,  388,  387, 3692, 3693, 3694, 3690
  20,   25,   26,  389,  388, 3695, 3696, 3697, 3693
** ... 3480 like lines cut
*Nset, nset=_PickedSet3, internal
     1,     2,     5,     6,     7,     8,     9,    10,    11,    12,    13,    14,    15,    16,    17,    18
    19,    20,    21,    22,    23,    24,    25,    26,    27,    28,    29,    30,    31,    32,    33,    34
    35,    36,    37,    38,    39,    40,    41,    42,    43,    44,    45,    46,    47,    48,    49,    50
    51,    52,    53,    54,    55,    56,    57,    58,    59,    60,    61,    62,    63,    64,    65,    66
    67,    68,    69,    70,    71,    72,    73,    74,    75,    76,    77,    78,    79,    80,    81,    82
    83,    84,    85,    86,    87,    88,    89,    90,    91,    92,    93,    94,    95,    96,    97,    98
    99,   100,   101,   102,   103,   104,   105,   253,   254,   255,   256,   257,   258,   259,   260,   261
   262,   263,   264,   265,   266,   267,   268,   269,   270,   271,   272,   273,   274,   275,   276,   277
   278,   279,   280,   281,   282,   283,   284,   285,   286,   287,   288,   289,   290,   291,   292,   293
   294,   295,   296,   297,   298,   299,   300,   301,   302,   303,   304,   305,   306,   307,   308,   309
   310,   311,   312,   313,   314,   315,   316,   317,   318,   319,   320,   321,   322,   323,   324,   325
   326,   327,   328,   329,   330,   331,   332,   333,   334,   335,   336,   337,   338,   339,   340,   341
   342,   343,   344,   345,   346,   347,   348,   349,   350,   351,   352,   353,   354,   355,   356,   357
   358,   359,   360,   361,   362,   363,   364,   365,   366,   367,   368,   369,  2746,  2747,  2748,  2749
  2750,  2751,  2752,  2753,  2754,  2755,  2756,  2757,  2758,  2759,  2760,  2761,  2762,  2763,  2764,  2765
  2766,  2767,  2768,  2769,  2770,  2771,  2772,  2773,  2774,  2775,  2776,  2777,  2778,  2779,  2780,  2781
  2782,  2783,  2784,  2785,  2786,  2787,  2788,  2789,  2790,  2791,  2792,  2793,  2794,  2795,  2796,  2797
  2798,  2799,  2800,  2801,  2802,  2803,  2804,  2805,  2806,  2807,  2808,  2809,  2810,  2811,  2812,  2813
  2814,  2815,  2816,  2817,  2818,  2819,  2820,  2821,  2822,  2823,  2824,  2825,  2826,  2827,  2828,  2829
  2830,  2831,  2832,  2833,  2834,  2835,  2836,  2837,  2838,  2839,  2840,  2841,  2842,  2843,  2844,  2845
** ... 182 like lines cut
*Elset, elset=_PickedSet3, internal, generate
 2501,  3500,     1
*Nset, nset=_PickedSet4, internal
    1,    2,    3,    4,    7,    8,    9,   10,   11,   12,   13,   14,   15,   16,   17,   18
   19,   20,   21,   22,   23,   24,   25,   26,   27,   28,   29,   30,   31,   32,   33,   34
   35,   36,   37,   38,   39,   40,   41,   42,   43,   44,   45,   46,   47,   48,   49,   50
   51,   52,   53,   54,   55,   56,   57,   58,   59,   60,   61,   62,   63,   64,   65,   66
   67,   68,   69,   70,   71,   72,   73,   74,   75,   76,   77,   78,   79,   80,   81,   82
   83,   84,   85,   86,   87,   88,   89,   90,   91,   92,   93,   94,   95,   96,   97,   98
   99,  100,  101,  102,  103,  104,  105,  106,  107,  108,  109,  110,  111,  112,  113,  114
  115,  116,  117,  118,  119,  120,  121,  122,  123,  124,  125,  126,  127,  128,  129,  130
  131,  132,  133,  134,  135,  136,  137,  138,  139,  140,  141,  142,  143,  144,  145,  146
  147,  148,  149,  150,  151,  152,  153,  154,  155,  156,  157,  158,  159,  160,  161,  162
  163,  164,  165,  166,  167,  168,  169,  170,  171,  172,  173,  174,  175,  176,  177,  178
  179,  180,  181,  182,  183,  184,  185,  186,  187,  188,  189,  190,  191,  192,  193,  194
  195,  196,  197,  198,  199,  200,  201,  202,  203,  204,  205,  206,  207,  208,  209,  210
  211,  212,  213,  214,  215,  216,  217,  218,  219,  220,  221,  222,  223,  224,  225,  226
  227,  228,  229,  230,  231,  232,  233,  234,  235,  236,  237,  238,  239,  240,  241,  242
  243,  244,  245,  246,  247,  248,  249,  250,  251,  252,  370,  371,  372,  373,  374,  375
  376,  377,  378,  379,  380,  381,  382,  383,  384,  385,  386,  387,  388,  389,  390,  391
  392,  393,  394,  395,  396,  397,  398,  399,  400,  401,  402,  403,  404,  405,  406,  407
  408,  409,  410,  411,  412,  413,  414,  415,  416,  417,  418,  419,  420,  421,  422,  423
  424,  425,  426,  427,  428,  429,  430,  431,  432,  433,  434,  435,  436,  437,  438,  439
** ... 465 like lines cut
*Elset, elset=_PickedSet4, internal, generate
    1,  2500,     1
** Section: SEC_LITHIUM
*Solid Section, elset=_PickedSet4, material=LITHIUM_SUB
,
** Section: SEC_SEED
*Solid Section, elset=_PickedSet3, material=LITHIUM_IP
,
*End Part
**  
*Part, name=LLZO_PART
*Node
      1,           0.,           0.
      2,  0.200000003,           0.
      3,  0.400000006,           0.
      4,  0.600000024,           0.
      5,  0.800000012,           0.
      6,           1.,           0.
      7,   1.20000005,           0.
      8,   1.39999998,           0.
      9,   1.60000002,           0.
     10,   1.79999995,           0.
     11,           2.,           0.
     12,   2.20000005,           0.
     13,    2.4000001,           0.
     14,    2.5999999,           0.
     15,   2.79999995,           0.
     16,           3.,           0.
     17,   3.20000005,           0.
     18,    3.4000001,           0.
     19,    3.5999999,           0.
     20,   3.79999995,           0.
** ... 7731 like lines cut
*Element, type=CPE8
   1,    1,    2,  103,  102, 2627, 2628, 2629, 2630
   2,    2,    3,  104,  103, 2631, 2632, 2633, 2628
   3,    3,    4,  105,  104, 2634, 2635, 2636, 2632
   4,    4,    5,  106,  105, 2637, 2638, 2639, 2635
   5,    5,    6,  107,  106, 2640, 2641, 2642, 2638
   6,    6,    7,  108,  107, 2643, 2644, 2645, 2641
   7,    7,    8,  109,  108, 2646, 2647, 2648, 2644
   8,    8,    9,  110,  109, 2649, 2650, 2651, 2647
   9,    9,   10,  111,  110, 2652, 2653, 2654, 2650
  10,   10,   11,  112,  111, 2655, 2656, 2657, 2653
  11,   11,   12,  113,  112, 2658, 2659, 2660, 2656
  12,   12,   13,  114,  113, 2661, 2662, 2663, 2659
  13,   13,   14,  115,  114, 2664, 2665, 2666, 2662
  14,   14,   15,  116,  115, 2667, 2668, 2669, 2665
  15,   15,   16,  117,  116, 2670, 2671, 2672, 2668
  16,   16,   17,  118,  117, 2673, 2674, 2675, 2671
  17,   17,   18,  119,  118, 2676, 2677, 2678, 2674
  18,   18,   19,  120,  119, 2679, 2680, 2681, 2677
  19,   19,   20,  121,  120, 2682, 2683, 2684, 2680
  20,   20,   21,  122,  121, 2685, 2686, 2687, 2683
** ... 2480 like lines cut
*Nset, nset=_PickedSet2, internal, generate
    1,  7751,     1
*Elset, elset=_PickedSet2, internal, generate
    1,  2500,     1
** Section: SEC_LLZO
*Solid Section, elset=_PickedSet2, material=LLZO
,
*End Part
**  
**
** ASSEMBLY
**
*Assembly, name=Assembly
**  
*Instance, name=LLZO_INST, part=LLZO_PART
*End Instance
**  
*Instance, name=LITHIUM_INST, part=LITHIUM_PART
*End Instance
**  
*Nset, nset=BOTTOM, instance=LLZO_INST
    1,    2,    3,    4,    5,    6,    7,    8,    9,   10,   11,   12,   13,   14,   15,   16
   17,   18,   19,   20,   21,   22,   23,   24,   25,   26,   27,   28,   29,   30,   31,   32
   33,   34,   35,   36,   37,   38,   39,   40,   41,   42,   43,   44,   45,   46,   47,   48
   49,   50,   51,   52,   53,   54,   55,   56,   57,   58,   59,   60,   61,   62,   63,   64
   65,   66,   67,   68,   69,   70,   71,   72,   73,   74,   75,   76,   77,   78,   79,   80
   81,   82,   83,   84,   85,   86,   87,   88,   89,   90,   91,   92,   93,   94,   95,   96
   97,   98,   99,  100,  101, 2627, 2631, 2634, 2637, 2640, 2643, 2646, 2649, 2652, 2655, 2658
 2661, 2664, 2667, 2670, 2673, 2676, 2679, 2682, 2685, 2688, 2691, 2694, 2697, 2700, 2703, 2706
 2709, 2712, 2715, 2718, 2721, 2724, 2727, 2730, 2733, 2736, 2739, 2742, 2745, 2748, 2751, 2754
 2757, 2760, 2763, 2766, 2769, 2772, 2775, 2778, 2781, 2784, 2787, 2790, 2793, 2796, 2799, 2802
 2805, 2808, 2811, 2814, 2817, 2820, 2823, 2826, 2829, 2832, 2835, 2838, 2841, 2844, 2847, 2850
 2853, 2856, 2859, 2862, 2865, 2868, 2871, 2874, 2877, 2880, 2883, 2886, 2889, 2892, 2895, 2898
 2901, 2904, 2907, 2910, 2913, 2916, 2919, 2922, 2925
*Elset, elset=BOTTOM, instance=LLZO_INST, generate
   1,  100,    1
*Nset, nset=LEFT, instance=LLZO_INST
    1,  102,  203,  304,  405,  506,  607,  708,  809,  910, 1011, 1112, 1213, 1314, 1415, 1516
 1617, 1718, 1819, 1920, 2021, 2122, 2223, 2324, 2425, 2526, 2630, 2930, 3131, 3332, 3533, 3734
 3935, 4136, 4337, 4538, 4739, 4940, 5141, 5342, 5543, 5744, 5945, 6146, 6347, 6548, 6749, 6950
 7151, 7352, 7553
*Nset, nset=LEFT, instance=LITHIUM_INST
     1,     4,     5,   229,   230,   231,   232,   233,   234,   235,   236,   237,   238,   239,   240,   241
   242,   243,   244,   245,   246,   247,   248,   249,   250,   251,   252,   253,   254,   255,   256,   257
   258,   259,   260,   261,  3640,  3940,  4141,  4342,  4543,  4744,  4945,  5146,  5347,  5548,  5749,  5950
  6151,  6352,  6553,  6754,  6955,  7156,  7357,  7558,  7759,  7960,  8161,  8362,  8563,  8961,  9162,  9363
  9564,  9765,  9966, 10167, 10368, 10569, 10770
*Elset, elset=LEFT, instance=LLZO_INST, generate
    1,  2401,   100
*Elset, elset=LEFT, instance=LITHIUM_INST
    1,  101,  201,  301,  401,  501,  601,  701,  801,  901, 1001, 1101, 1201, 1301, 1401, 1501
 1601, 1701, 1801, 1901, 2001, 2101, 2201, 2301, 2401, 2600, 2700, 2800, 2900, 3000, 3100, 3200
 3300, 3400, 3500
*Nset, nset=LITHIUM_NODES_SET, instance=LITHIUM_INST, generate
     1,  10771,      1
*Elset, elset=LITHIUM_NODES_SET, instance=LITHIUM_INST, generate
    1,  3500,     1
*Nset, nset=RIGHT, instance=LLZO_INST
  101,  202,  303,  404,  505,  606,  707,  808,  909, 1010, 1111, 1212, 1313, 1414, 1515, 1616
 1717, 1818, 1919, 2020, 2121, 2222, 2323, 2424, 2525, 2626, 2926, 3127, 3328, 3529, 3730, 3931
 4132, 4333, 4534, 4735, 4936, 5137, 5338, 5539, 5740, 5941, 6142, 6343, 6544, 6745, 6946, 7147
 7348, 7549, 7750
*Nset, nset=RIGHT, instance=LITHIUM_INST
     2,     3,     6,   106,   107,   108,   109,   110,   111,   112,   113,   114,   115,   116,   117,   118
   119,   120,   121,   122,   123,   124,   125,   126,   127,   128,   129,   361,   362,   363,   364,   365
   366,   367,   368,   369,  3936,  4137,  4338,  4539,  4740,  4941,  5142,  5343,  5544,  5745,  5946,  6147
  6348,  6549,  6750,  6951,  7152,  7353,  7554,  7755,  7956,  8157,  8358,  8559,  8760,  8764,  8965,  9166
  9367,  9568,  9769,  9970, 10171, 10372, 10573
*Elset, elset=RIGHT, instance=LLZO_INST, generate
  100,  2500,   100
*Elset, elset=RIGHT, instance=LITHIUM_INST
  100,  200,  300,  400,  500,  600,  700,  800,  900, 1000, 1100, 1200, 1300, 1400, 1500, 1600
 1700, 1800, 1900, 2000, 2100, 2200, 2300, 2400, 2500, 2501, 2601, 2701, 2801, 2901, 3001, 3101
 3201, 3301, 3401
*Elset, elset=_LITHIUM_BOT_SURF_S3, internal, instance=LITHIUM_INST, generate
 3401,  3500,     1
*Surface, type=ELEMENT, name=LITHIUM_BOT_SURF
_LITHIUM_BOT_SURF_S3, S3
*Elset, elset=_LLZO_TOP_SURF_S3, internal, instance=LLZO_INST, generate
 2401,  2500,     1
*Surface, type=ELEMENT, name=LLZO_TOP_SURF
_LLZO_TOP_SURF_S3, S3
*Elset, elset=_TOP_SURFACE_S3, internal, instance=LITHIUM_INST, generate
 2401,  2500,     1
*Surface, type=ELEMENT, name=TOP_SURFACE
_TOP_SURFACE_S3, S3
*End Assembly
** 
** MATERIALS
** 
*Material, name=LITHIUM_IP
*Density
 5.34e-10,
*Depvar
     24,
*User Material, constants=16
7810.,    0.38, 4.254e4,     37.,    298.,   0.15,   0.95,     10.
     2.,      2.,    0.05, 1.3e-05,      0.,      1.,      0., 103.643
*Material, name=LITHIUM_SUB
*Density
 5.34e-10,
*Depvar
     24,
*User Material, constants=16
7810.,    0.38, 4.254e4,     37.,    298.,   0.15,   0.95,     10.
     2.,      2.,    0.05, 1.3e-05,      0.,      1.,      0.,      0.
*Material, name=LLZO
*Density
 5.1e-09,
*Elastic
150000., 0.25
** 
** INTERACTION PROPERTIES
** 
*Surface Interaction, name=IntProp-1
1.,
*Friction, slip tolerance=0.005
 0.1,
*Surface Behavior, penalty
** 
** BOUNDARY CONDITIONS
** 
** Name: BC_BOT Type: Displacement/Rotation
*Boundary
BOTTOM, 1, 1
BOTTOM, 2, 2
** Name: BC_LEFT Type: Displacement/Rotation
*Boundary
LEFT, 1, 1
** Name: BC_RIGHT Type: Displacement/Rotation
*Boundary
RIGHT, 1, 1
** 
** PREDEFINED FIELDS
** 
** Name: Predef_Temp   Type: Temperature
*Initial Conditions, type=TEMPERATURE
LITHIUM_NODES_SET, 0.
** 
** INTERACTIONS
** 
** Interaction: Int-1
*Contact Pair, interaction=IntProp-1, small sliding, type=SURFACE TO SURFACE
LITHIUM_BOT_SURF, LLZO_TOP_SURF
** ----------------------------------------------------------------
** 
** STEP: Step-1
** 
*Step, name=Step-1, nlgeom=YES, amplitude=STEP, inc=100000
*Dynamic,application=QUASI-STATIC,nohaf
0.001,12960.,1e-15,1.
*CONTROLS, ANALYSIS=DISCONTINUOUS
*CONTROLS, PARAMETERS=TIME INCREMENTATION
,,,,,,,30,,,,,,
*CONTROLS, PARAMETERS=FIELD
0.05, 2.0
*CONTROLS, PARAMETERS=FIELD, FIELD=DISPLACEMENT
0.02, 2.0
** 
** LOADS
** 
** Name: Load-1   Type: Pressure
*Dsload
TOP_SURFACE, P, 5.
** 
** OUTPUT REQUESTS
** 
*Restart, write, frequency=0
** 
** FIELD OUTPUT: F-Output-1
** 
*Output, field
*Node Output
NT, RF, U
*Element Output, directions=YES
LE, S, SDV, STATUS
** 
** HISTORY OUTPUT: H-Output-1
** 
*Output, history, variable=PRESELECT
*End Step
